output/Combined/csv/Powers.csv
Element, Terminal, P(kW), Q(kvar),  P_Normal, Q_Normal, P_Emergency, Q_Emergency
"Line.M01"              ,   1,      1465.1,       721.1,         0.0,         0.0,         0.0,         0.0
"Line.M01"              ,   2,     -1460.0,      -718.1
"Line.M02"              ,   1,       623.9,       306.2,         0.0,         0.0,         0.0,         0.0
"Line.M02"              ,   2,      -623.4,      -306.1
"Line.LU1"              ,   1,       633.9,       312.0,         0.0,         0.0,         0.0,         0.0
"Line.LU1"              ,   2,      -633.7,      -311.9
"Line.LU2"              ,   1,       584.7,       287.7,         0.0,         0.0,         0.0,         0.0
"Line.LU2"              ,   2,      -584.3,      -287.5
"Line.LU3"              ,   1,       578.8,       285.1,         0.0,         0.0,         0.0,         0.0
"Line.LU3"              ,   2,      -578.7,      -285.0
"Line.LU4"              ,   1,       574.0,       282.8,         0.0,         0.0,         0.0,         0.0
"Line.LU4"              ,   2,      -573.8,      -282.8
"Line.LU5"              ,   1,       524.8,       258.6,         0.0,         0.0,         0.0,         0.0
"Line.LU5"              ,   2,      -524.6,      -258.5
"Line.LU6"              ,   1,       471.5,       232.2,         0.0,         0.0,         0.0,         0.0
"Line.LU6"              ,   2,      -471.2,      -232.2
"Line.LU7"              ,   1,       426.2,       210.1,         0.0,         0.0,         0.0,         0.0
"Line.LU7"              ,   2,      -426.0,      -210.1
"Line.LU8"              ,   1,       385.2,       190.0,         0.0,         0.0,         0.0,         0.0
"Line.LU8"              ,   2,      -385.0,      -190.0
"Line.LU9"              ,   1,       319.7,       157.4,         0.0,         0.0,         0.0,         0.0
"Line.LU9"              ,   2,      -319.5,      -157.5
"Line.LU10"             ,   1,       254.2,       124.9,         0.0,         0.0,         0.0,         0.0
"Line.LU10"             ,   2,      -254.2,      -124.9
"Line.LU11"             ,   1,       248.1,       122.0,         0.0,         0.0,         0.0,         0.0
"Line.LU11"             ,   2,      -248.0,      -122.0
"Line.LU12"             ,   1,       186.8,        91.6,         0.0,         0.0,         0.0,         0.0
"Line.LU12"             ,   2,      -186.8,       -91.6
"Line.LU13"             ,   1,       121.4,        59.0,         0.0,         0.0,         0.0,         0.0
"Line.LU13"             ,   2,      -121.4,       -59.0
"Line.LU14"             ,   1,        69.9,        34.2,         0.0,         0.0,         0.0,         0.0
"Line.LU14"             ,   2,       -69.9,       -34.2
"Line.LU15"             ,   1,        44.9,        22.0,         0.0,         0.0,         0.0,         0.0
"Line.LU15"             ,   2,       -44.9,       -22.1
"Line.LU16"             ,   1,        51.5,        24.9,         0.0,         0.0,         0.0,         0.0
"Line.LU16"             ,   2,       -51.5,       -24.9
"Line.LU17"             ,   1,        10.7,         4.8,         0.0,         0.0,         0.0,         0.0
"Line.LU17"             ,   2,       -10.7,        -5.0
"Line.LU18"             ,   1,       -54.7,       -27.6,         0.0,         0.0,         0.0,         0.0
"Line.LU18"             ,   2,        54.7,        27.5
"Line.LU19"             ,   1,      -103.7,       -52.1,         0.0,         0.0,         0.0,         0.0
"Line.LU19"             ,   2,       103.7,        52.0
"Line.LU20"             ,   1,      -243.2,      -120.3,         0.0,         0.0,         0.0,         0.0
"Line.LU20"             ,   2,       243.2,       120.2
"Line.LU21"             ,   1,      -266.3,      -131.6,         0.0,         0.0,         0.0,         0.0
"Line.LU21"             ,   2,       266.3,       131.6
"Line.LU22"             ,   1,      -285.7,      -140.8,         0.0,         0.0,         0.0,         0.0
"Line.LU22"             ,   2,       285.7,       140.8
"Line.LU23"             ,   1,      -742.1,      -365.7,         0.0,         0.0,         0.0,         0.0
"Line.LU23"             ,   2,       742.5,       365.9
"Line.LU24"             ,   1,      -791.5,      -390.1,         0.0,         0.0,         0.0,         0.0
"Line.LU24"             ,   2,       791.6,       390.1
"Line.LU25"             ,   1,      -791.8,      -390.1,         0.0,         0.0,         0.0,         0.0
"Line.LU25"             ,   2,       791.9,       390.1
"Line.LU26"             ,   1,      -816.3,      -401.8,         0.0,         0.0,         0.0,         0.0
"Line.LU26"             ,   2,       816.4,       401.9
"Line.LU27"             ,   1,      -816.7,      -401.9,         0.0,         0.0,         0.0,         0.0
"Line.LU27"             ,   2,       817.0,       402.0
"Line.LU28"             ,   1,      -817.0,      -402.0,         0.0,         0.0,         0.0,         0.0
"Line.LU28"             ,   2,       817.3,       402.2
"Line.LU29"             ,   1,      -823.7,      -405.2,         0.0,         0.0,         0.0,         0.0
"Line.LU29"             ,   2,       824.3,       405.5
"Line.LU30"             ,   1,      -824.6,      -405.5,         0.0,         0.0,         0.0,         0.0
"Line.LU30"             ,   2,       825.8,       406.1
"Line.LU31"             ,   1,      -825.9,      -406.1,         0.0,         0.0,         0.0,         0.0
"Line.LU31"             ,   2,       826.0,       406.1
"Line.LU32"             ,   1,       456.4,       224.9,         0.0,         0.0,         0.0,         0.0
"Line.LU32"             ,   2,      -456.4,      -224.9
"Line.LU33"             ,   1,       366.7,       180.6,         0.0,         0.0,         0.0,         0.0
"Line.LU33"             ,   2,      -366.6,      -180.6
"Line.LU34"             ,   1,       301.3,       148.1,         0.0,         0.0,         0.0,         0.0
"Line.LU34"             ,   2,      -301.2,      -148.1
"Line.LU35"             ,   1,       217.0,       106.7,         0.0,         0.0,         0.0,         0.0
"Line.LU35"             ,   2,      -217.0,      -106.8
"Line.LU36"             ,   1,       217.0,       106.8,         0.0,         0.0,         0.0,         0.0
"Line.LU36"             ,   2,      -217.0,      -106.8
"Line.LU37"             ,   1,       172.0,        84.7,         0.0,         0.0,         0.0,         0.0
"Line.LU37"             ,   2,      -172.0,       -84.7
"Line.LU38"             ,   1,       167.6,        82.9,         0.0,         0.0,         0.0,         0.0
"Line.LU38"             ,   2,      -167.6,       -82.9
"Line.LU39"             ,   1,       161.2,        80.0,         0.0,         0.0,         0.0,         0.0
"Line.LU39"             ,   2,      -161.2,       -80.0
"Line.LU40"             ,   1,       160.9,        80.0,         0.0,         0.0,         0.0,         0.0
"Line.LU40"             ,   2,      -160.9,       -80.1
"Line.LU41"             ,   1,        30.4,        14.9,         0.0,         0.0,         0.0,         0.0
"Line.LU41"             ,   2,       -30.4,       -14.9
"Line.LU42"             ,   1,       -18.6,        -9.2,         0.0,         0.0,         0.0,         0.0
"Line.LU42"             ,   2,        18.6,         9.1
"Line.LU43"             ,   1,       -83.9,       -41.7,         0.0,         0.0,         0.0,         0.0
"Line.LU43"             ,   2,        83.9,        41.6
"Line.LU44"             ,   1,       -83.9,       -41.6,         0.0,         0.0,         0.0,         0.0
"Line.LU44"             ,   2,        83.9,        41.5
"Line.LU45"             ,   1,       -84.2,       -41.5,         0.0,         0.0,         0.0,         0.0
"Line.LU45"             ,   2,        84.2,        41.4
"Line.LU46"             ,   1,       139.5,        68.2,         0.0,         0.0,         0.0,         0.0
"Line.LU46"             ,   2,      -139.5,       -68.3
"Line.LU47"             ,   1,        90.4,        44.1,         0.0,         0.0,         0.0,         0.0
"Line.LU47"             ,   2,       -90.4,       -44.1
"Line.LU48"             ,   1,        90.4,        44.1,         0.0,         0.0,         0.0,         0.0
"Line.LU48"             ,   2,       -90.4,       -44.2
"Line.LU49"             ,   1,        49.6,        24.1,         0.0,         0.0,         0.0,         0.0
"Line.LU49"             ,   2,       -49.6,       -24.1
"Line.LU50"             ,   1,        49.0,        24.2,         0.0,         0.0,         0.0,         0.0
"Line.LU50"             ,   2,       -49.0,       -24.2
"Line.LU51"             ,   1,         0.5,        -0.0,         0.0,         0.0,         0.0,         0.0
"Line.LU51"             ,   2,        -0.5,         0.0
"Line.LU52"             ,   1,         0.3,        -0.0,         0.0,         0.0,         0.0,         0.0
"Line.LU52"             ,   2,        -0.3,        -0.0
"Line.LU54"             ,   1,       120.5,        59.1,         0.0,         0.0,         0.0,         0.0
"Line.LU54"             ,   2,      -120.5,       -59.2
"Line.LU55"             ,   1,       110.3,        54.4,         0.0,         0.0,         0.0,         0.0
"Line.LU55"             ,   2,      -110.3,       -54.5
"Line.LU56"             ,   1,        57.2,        28.2,         0.0,         0.0,         0.0,         0.0
"Line.LU56"             ,   2,       -57.2,       -28.4
"Line.LU57"             ,   1,       462.0,       226.9,         0.0,         0.0,         0.0,         0.0
"Line.LU57"             ,   2,      -461.7,      -226.9
"Line.LU58"             ,   1,       461.4,       226.9,         0.0,         0.0,         0.0,         0.0
"Line.LU58"             ,   2,      -461.2,      -226.8
"Line.LU59"             ,   1,       450.1,       221.6,         0.0,         0.0,         0.0,         0.0
"Line.LU59"             ,   2,      -450.1,      -221.6
"Line.LU60"             ,   1,       405.1,       199.4,         0.0,         0.0,         0.0,         0.0
"Line.LU60"             ,   2,      -405.1,      -199.4
"Line.LU61"             ,   1,       364.2,       179.4,         0.0,         0.0,         0.0,         0.0
"Line.LU61"             ,   2,      -364.2,      -179.4
"Line.LU62"             ,   1,       298.8,       146.8,         0.0,         0.0,         0.0,         0.0
"Line.LU62"             ,   2,      -298.8,      -146.8
"Line.LU63"             ,   1,       258.0,       126.8,         0.0,         0.0,         0.0,         0.0
"Line.LU63"             ,   2,      -257.9,      -126.8
"Line.LU64"             ,   1,        57.4,        28.3,         0.0,         0.0,         0.0,         0.0
"Line.LU64"             ,   2,       -57.4,       -28.3
"Line.LU65"             ,   1,         0.3,        -0.0,         0.0,         0.0,         0.0,         0.0
"Line.LU65"             ,   2,        -0.3,        -0.0
"Line.LU66"             ,   1,       200.5,        98.5,         0.0,         0.0,         0.0,         0.0
"Line.LU66"             ,   2,      -200.4,       -98.6
"Line.LU67"             ,   1,        57.2,        28.3,         0.0,         0.0,         0.0,         0.0
"Line.LU67"             ,   2,       -57.2,       -28.4
"Line.LU68"             ,   1,        98.3,        48.1,         0.0,         0.0,         0.0,         0.0
"Line.LU68"             ,   2,       -98.3,       -48.2
"Line.LU69"             ,   1,         0.3,        -0.1,         0.0,         0.0,         0.0,         0.0
"Line.LU69"             ,   2,        -0.3,        -0.0
"Line.LU70"             ,   1,        49.0,        24.1,         0.0,         0.0,         0.0,         0.0
"Line.LU70"             ,   2,       -49.0,       -24.2
"Line.LU73"             ,   1,         0.0,        -0.0,         0.0,         0.0,         0.0,         0.0
"Line.LU73"             ,   2,        -0.0,        -0.0
"Transformer.RAM_MANDIR",   1,        49.0,        24.2,         0.0,         0.0,         0.0,         0.0
"Transformer.RAM_MANDIR",   2,       -48.6,       -23.5
"Transformer.DEMPO_DTC" ,   1,         5.5,         2.5,         0.0,         0.0,         0.0,         0.0
"Transformer.DEMPO_DTC" ,   2,        -5.2,        -2.5
"Transformer.RB_ENGG"   ,   1,         4.7,         2.2,         0.0,         0.0,         0.0,         0.0
"Transformer.RB_ENGG"   ,   2,        -4.4,        -2.2
"Transformer.UNDIR_BAKALE",   1,        49.0,        24.2,         0.0,         0.0,         0.0,         0.0
"Transformer.UNDIR_BAKALE",   2,       -48.6,       -23.5
"Transformer.MULEBHAT"  ,   1,        53.1,        26.3,         0.0,         0.0,         0.0,         0.0
"Transformer.MULEBHAT"  ,   2,       -52.7,       -25.5
"Transformer.MARUTI_TEMPLE",   1,        44.9,        22.1,         0.0,         0.0,         0.0,         0.0
"Transformer.MARUTI_TEMPLE",   2,       -44.6,       -21.6
"Transformer.CHIKALI"   ,   1,        40.9,        20.1,         0.0,         0.0,         0.0,         0.0
"Transformer.CHIKALI"   ,   2,       -40.5,       -19.6
"Transformer.ADPAI"     ,   1,        65.3,        32.6,         0.0,         0.0,         0.0,         0.0
"Transformer.ADPAI"     ,   2,       -64.8,       -31.4
"Transformer.DURBHAT"   ,   1,        65.3,        32.6,         0.0,         0.0,         0.0,         0.0
"Transformer.DURBHAT"   ,   2,       -64.8,       -31.4
"Transformer.SEWERAGE"  ,   1,         6.1,         2.9,         0.0,         0.0,         0.0,         0.0
"Transformer.SEWERAGE"  ,   2,        -5.8,        -2.9
"Transformer.KASWADA"   ,   1,        61.3,        30.5,         0.0,         0.0,         0.0,         0.0
"Transformer.KASWADA"   ,   2,       -60.8,       -29.4
"Transformer.LONDIYAR_WADEM",   1,        65.3,        32.6,         0.0,         0.0,         0.0,         0.0
"Transformer.LONDIYAR_WADEM",   2,       -64.8,       -31.4
"Transformer.NEW_TALAULIM",   1,        24.9,        12.2,         0.0,         0.0,         0.0,         0.0
"Transformer.NEW_TALAULIM",   2,       -24.6,       -12.1
"Transformer.WADI"      ,   1,        44.9,        22.1,         0.0,         0.0,         0.0,         0.0
"Transformer.WADI"      ,   2,       -44.6,       -21.6
"Transformer.TALAULIM"  ,   1,        40.9,        20.1,         0.0,         0.0,         0.0,         0.0
"Transformer.TALAULIM"  ,   2,       -40.5,       -19.6
"Transformer.MAHALAKSHMI_NAGAR",   1,        65.3,        32.6,         0.0,         0.0,         0.0,         0.0
"Transformer.MAHALAKSHMI_NAGAR",   2,       -64.8,       -31.4
"Transformer.PAUNWADA"  ,   1,        49.0,        24.5,         0.0,         0.0,         0.0,         0.0
"Transformer.PAUNWADA"  ,   2,       -48.6,       -23.5
"Transformer.KAVLE_MATH",   1,        23.1,        11.4,         0.0,         0.0,         0.0,         0.0
"Transformer.KAVLE_MATH",   2,       -22.8,       -11.3
"Transformer.SHANTADURGA_OLD",   1,        19.4,         9.2,         0.0,         0.0,         0.0,         0.0
"Transformer.SHANTADURGA_OLD",   2,       -19.1,        -9.1
"Transformer.SANATAN_1" ,   1,        49.0,        24.2,         0.0,         0.0,         0.0,         0.0
"Transformer.SANATAN_1" ,   2,       -48.6,       -23.5
"Transformer.SANATAN_2" ,   1,         0.3,         0.0,         0.0,         0.0,         0.0,         0.0
"Transformer.SANATAN_2" ,   2,        -0.0,        -0.0
"Transformer.RAMNATHI_DEVASTHAN",   1,        24.4,        11.7,         0.0,         0.0,         0.0,         0.0
"Transformer.RAMNATHI_DEVASTHAN",   2,       -24.1,       -11.5
"Transformer.RAMNATHI"  ,   1,         0.3,         0.0,         0.0,         0.0,         0.0,         0.0
"Transformer.RAMNATHI"  ,   2,        -0.0,         0.0
"Transformer.RPRS_SCHOOL",   1,         6.4,         3.0,         0.0,         0.0,         0.0,         0.0
"Transformer.RPRS_SCHOOL",   2,        -6.2,        -3.0
"Transformer.TOLULEM"   ,   1,         0.3,         0.0,         0.0,         0.0,         0.0,         0.0
"Transformer.TOLULEM"   ,   2,         0.0,         0.0
"Transformer.KHARWADA"  ,   1,         0.1,         0.0,         0.0,         0.0,         0.0,         0.0
"Transformer.KHARWADA"  ,   2,        -0.0,        -0.0
"Transformer.SHANTADURGA_NEW",   1,        89.8,        44.3,         0.0,         0.0,         0.0,         0.0
"Transformer.SHANTADURGA_NEW",   2,       -89.1,       -43.2
"Transformer.GALSHIRE"  ,   1,        65.3,        32.6,         0.0,         0.0,         0.0,         0.0
"Transformer.GALSHIRE"  ,   2,       -64.8,       -31.4
"Transformer.RAJENDRA_TALAK",   1,         4.5,         1.8,         0.0,         0.0,         0.0,         0.0
"Transformer.RAJENDRA_TALAK",   2,        -3.8,        -1.8
"Transformer.RITESH_DEVELOPERS",   1,         6.4,         2.9,         0.0,         0.0,         0.0,         0.0
"Transformer.RITESH_DEVELOPERS",   2,        -5.9,        -2.9
"Transformer.VENKATESH_LEELA",   1,         0.3,         0.0,         0.0,         0.0,         0.0,         0.0
"Transformer.VENKATESH_LEELA",   2,         0.0,         0.0
"Transformer.PERIGOL"   ,   1,       130.5,        65.1,         0.0,         0.0,         0.0,         0.0
"Transformer.PERIGOL"   ,   2,      -129.6,       -62.8
"Transformer.MANMOHAN_SINGH",   1,        49.0,        24.1,         0.0,         0.0,         0.0,         0.0
"Transformer.MANMOHAN_SINGH",   2,       -48.6,       -23.5
"Transformer.DHUMRE"    ,   1,        65.3,        32.6,         0.0,         0.0,         0.0,         0.0
"Transformer.DHUMRE"    ,   2,       -64.8,       -31.4
"Transformer.SHASHIKALA_PAI",   1,         0.3,         0.0,         0.0,         0.0,         0.0,         0.0
"Transformer.SHASHIKALA_PAI",   2,         0.0,         0.0
"Transformer.KAPILESHWARI",   1,        49.0,        24.2,         0.0,         0.0,         0.0,         0.0
"Transformer.KAPILESHWARI",   2,       -48.6,       -23.5
"Transformer.MATRUCHAYA",   1,        40.9,        20.1,         0.0,         0.0,         0.0,         0.0
"Transformer.MATRUCHAYA",   2,       -40.5,       -19.6
"Transformer.VAMNESHWAR",   1,        49.0,        24.2,         0.0,         0.0,         0.0,         0.0
"Transformer.VAMNESHWAR",   2,       -48.6,       -23.5
"Transformer.GOLDEN_PROPERTIES",   1,         0.3,         0.0,         0.0,         0.0,         0.0,         0.0
"Transformer.GOLDEN_PROPERTIES",   2,         0.0,        -0.0
"Transformer.RITESH"    ,   1,         0.3,         0.0,         0.0,         0.0,         0.0,         0.0
"Transformer.RITESH"    ,   2,        -0.0,        -0.0
"Transformer.T_SNEH_MANDIR",   1,        44.9,        22.1,         0.0,         0.0,         0.0,         0.0
"Transformer.T_SNEH_MANDIR",   2,       -44.6,       -21.6
"Transformer.T_RAIGUINIM",   1,        49.0,        24.2,         0.0,         0.0,         0.0,         0.0
"Transformer.T_RAIGUINIM",   2,       -48.6,       -23.5
"Transformer.T_BANDORAPANCHAYAT",   1,        49.0,        24.2,         0.0,         0.0,         0.0,         0.0
"Transformer.T_BANDORAPANCHAYAT",   2,       -48.6,       -23.5
"Transformer.T_KASHIMATHGROUND",   1,         0.3,         0.0,         0.0,         0.0,         0.0,         0.0
"Transformer.T_KASHIMATHGROUND",   2,        -0.0,         0.0
"Transformer.T_NAGESHITEMPLE",   1,        44.9,        22.1,         0.0,         0.0,         0.0,         0.0
"Transformer.T_NAGESHITEMPLE",   2,       -44.6,       -21.6
"Transformer.T_DHONSHI" ,   1,        57.2,        28.4,         0.0,         0.0,         0.0,         0.0
"Transformer.T_DHONSHI" ,   2,       -56.7,       -27.5
"Transformer.T_AGRASHALA",   1,        40.9,        20.0,         0.0,         0.0,         0.0,         0.0
"Transformer.T_AGRASHALA",   2,       -40.5,       -19.6
"Transformer.T_HINDUJAN",   1,        57.2,        28.4,         0.0,         0.0,         0.0,         0.0
"Transformer.T_HINDUJAN",   2,       -56.7,       -27.5
"Transformer.T_VAGDOR"  ,   1,         0.3,         0.0,         0.0,         0.0,         0.0,         0.0
"Transformer.T_VAGDOR"  ,   2,         0.0,         0.0
"Transformer.T_MAHALAXMI",   1,        65.3,        32.6,         0.0,         0.0,         0.0,         0.0
"Transformer.T_MAHALAXMI",   2,       -64.8,       -31.4
"Transformer.T_PEARL"   ,   1,        40.9,        20.1,         0.0,         0.0,         0.0,         0.0
"Transformer.T_PEARL"   ,   2,       -40.5,       -19.6
"Transformer.T_KUNAL"   ,   1,        44.9,        22.1,         0.0,         0.0,         0.0,         0.0
"Transformer.T_KUNAL"   ,   2,       -44.6,       -21.6
"Transformer.T_SHAMRAO" ,   1,        11.1,         5.3,         0.0,         0.0,         0.0,         0.0
"Transformer.T_SHAMRAO" ,   2,       -10.8,        -5.2
"Transformer.T_MOGRU"   ,   1,         0.3,         0.0,         0.0,         0.0,         0.0,         0.0
"Transformer.T_MOGRU"   ,   2,         0.0,         0.0
"Transformer.T_KONARGAUNEM",   1,        40.9,        20.1,         0.0,         0.0,         0.0,         0.0
"Transformer.T_KONARGAUNEM",   2,       -40.5,       -19.6
"Transformer.T_MGSCHOOL",   1,        10.2,         4.8,         0.0,         0.0,         0.0,         0.0
"Transformer.T_MGSCHOOL",   2,        -9.9,        -4.8
"Transformer.T_CHAFERAN",   1,        53.1,        26.2,         0.0,         0.0,         0.0,         0.0
"Transformer.T_CHAFERAN",   2,       -52.7,       -25.5
"Transformer.T_SHIGUMOMAND",   1,        57.2,        28.4,         0.0,         0.0,         0.0,         0.0
"Transformer.T_SHIGUMOMAND",   2,       -56.7,       -27.5
"Line.S01"              ,   1,       929.7,       318.0,         0.0,         0.0,         0.0,         0.0
"Line.S01"              ,   2,      -929.4,      -322.0
"Line.L1"               ,   1,       763.6,       281.7,         0.0,         0.0,         0.0,         0.0
"Line.L1"               ,   2,      -763.5,      -285.3
"Line.L2"               ,   1,       748.8,       278.3,         0.0,         0.0,         0.0,         0.0
"Line.L2"               ,   2,      -748.6,      -282.2
"Line.L3"               ,   1,       711.8,       263.7,         0.0,         0.0,         0.0,         0.0
"Line.L3"               ,   2,      -711.8,      -264.0
"Line.L4"               ,   1,       535.4,       212.5,         0.0,         0.0,         0.0,         0.0
"Line.L4"               ,   2,      -535.3,      -216.4
"Line.L5"               ,   1,       528.9,       213.3,         0.0,         0.0,         0.0,         0.0
"Line.L5"               ,   2,      -528.9,      -214.8
"Line.L6"               ,   1,        83.4,        34.3,         0.0,         0.0,         0.0,         0.0
"Line.L6"               ,   2,       -83.4,       -35.8
"Line.L7"               ,   1,        76.1,        32.2,         0.0,         0.0,         0.0,         0.0
"Line.L7"               ,   2,       -76.1,       -33.1
"Line.L8"               ,   1,        51.5,        21.2,         0.0,         0.0,         0.0,         0.0
"Line.L8"               ,   2,       -51.5,       -28.0
"Line.L9"               ,   1,        26.9,        15.9,         0.0,         0.0,         0.0,         0.0
"Line.L9"               ,   2,       -26.9,       -19.7
"Line.L10"              ,   1,       111.1,        51.4,         0.0,         0.0,         0.0,         0.0
"Line.L10"              ,   2,      -111.1,       -52.2
"Line.L11"              ,   1,        45.7,        19.5,         0.0,         0.0,         0.0,         0.0
"Line.L11"              ,   2,       -45.7,       -22.8
"Line.L12"              ,   1,       165.8,        40.3,         0.0,         0.0,         0.0,         0.0
"Line.L12"              ,   2,      -165.8,       -40.5
"Line.L13"              ,   1,        36.7,        15.7,         0.0,         0.0,         0.0,         0.0
"Line.L13"              ,   2,       -36.7,       -17.6
"Line.L14"              ,   1,       129.1,        24.8,         0.0,         0.0,         0.0,         0.0
"Line.L14"              ,   2,      -129.1,       -26.6
"Line.L15"              ,   1,        63.7,        -6.0,         0.0,         0.0,         0.0,         0.0
"Line.L15"              ,   2,       -63.7,        -1.1
"Line.L16"              ,   1,        10.3,         4.8,         0.0,         0.0,         0.0,         0.0
"Line.L16"              ,   2,       -10.3,        -4.9
"Line.L17"              ,   1,        53.4,        -3.6,         0.0,         0.0,         0.0,         0.0
"Line.L17"              ,   2,       -53.4,        -0.4
"Line.L18"              ,   1,         0.0,        -1.3,         0.0,         0.0,         0.0,         0.0
"Line.L18"              ,   2,         0.0,         0.0
"Line.L19"              ,   1,       288.7,       137.2,         0.0,         0.0,         0.0,         0.0
"Line.L19"              ,   2,      -288.7,      -140.0
"Line.L20"              ,   1,       215.5,       104.8,         0.0,         0.0,         0.0,         0.0
"Line.L20"              ,   2,      -215.5,      -105.1
"Line.L21"              ,   1,       182.8,        88.7,         0.0,         0.0,         0.0,         0.0
"Line.L21"              ,   2,      -182.8,       -89.7
"Line.L22"              ,   1,        52.2,        24.3,         0.0,         0.0,         0.0,         0.0
"Line.L22"              ,   2,       -52.2,       -25.7
"Line.L23"              ,   1,         0.0,        -0.5,         0.0,         0.0,         0.0,         0.0
"Line.L23"              ,   2,        -0.0,        -0.0
"Line.L24"              ,   1,        65.3,         1.4,         0.0,         0.0,         0.0,         0.0
"Line.L24"              ,   2,       -65.3,        -8.9
"Line.L25"              ,   1,        39.5,        -3.4,         0.0,         0.0,         0.0,         0.0
"Line.L25"              ,   2,       -39.5,         2.1
"Line.L26"              ,   1,        27.8,        -7.7,         0.0,         0.0,         0.0,         0.0
"Line.L26"              ,   2,       -27.8,         3.2
"Line.L27"              ,   1,         7.3,       -13.3,         0.0,         0.0,         0.0,         0.0
"Line.L27"              ,   2,        -7.3,         6.4
"Line.L28"              ,   1,         0.0,        -9.9,         0.0,         0.0,         0.0,         0.0
"Line.L28"              ,   2,         0.0,        -0.0
"Line.L29"              ,   1,       584.6,       230.9,         0.0,         0.0,         0.0,         0.0
"Line.L29"              ,   2,      -584.4,      -236.7
"Line.L30"              ,   1,       127.2,        33.1,         0.0,         0.0,         0.0,         0.0
"Line.L30"              ,   2,      -127.2,       -42.7
"Line.L31"              ,   1,       127.2,        42.7,         0.0,         0.0,         0.0,         0.0
"Line.L31"              ,   2,      -127.2,       -46.1
"Line.L32"              ,   1,       174.8,        76.2,         0.0,         0.0,         0.0,         0.0
"Line.L32"              ,   2,      -174.8,       -78.3
"Line.L33"              ,   1,       -84.1,       -31.7,         0.0,         0.0,         0.0,         0.0
"Line.L33"              ,   2,        84.1,        27.9
"Line.L34"              ,   1,      -123.3,       -47.3,         0.0,         0.0,         0.0,         0.0
"Line.L34"              ,   2,       123.4,        32.5
"Line.L36"              ,   1,        53.4,         1.7,         0.0,         0.0,         0.0,         0.0
"Line.L36"              ,   2,       -53.4,        -4.9
"Line.L37"              ,   1,        -3.8,       -23.5,         0.0,         0.0,         0.0,         0.0
"Line.L37"              ,   2,         3.8,        13.6
"Transformer.T1"        ,   1,        14.7,         7.0,         0.0,         0.0,         0.0,         0.0
"Transformer.T1"        ,   2,       -14.4,        -7.0
"Transformer.T2"        ,   1,        36.8,        18.5,         0.0,         0.0,         0.0,         0.0
"Transformer.T2"        ,   2,       -36.5,       -17.7
"Transformer.T3"        ,   1,        49.0,        24.2,         0.0,         0.0,         0.0,         0.0
"Transformer.T3"        ,   2,       -48.6,       -23.5
"Transformer.T4"        ,   1,         6.4,         3.1,         0.0,         0.0,         0.0,         0.0
"Transformer.T4"        ,   2,        -6.3,        -3.1
"Transformer.T5"        ,   1,        91.4,        44.0,         0.0,         0.0,         0.0,         0.0
"Transformer.T5"        ,   2,       -90.0,       -43.6
"Transformer.T6"        ,   1,         7.3,         3.5,         0.0,         0.0,         0.0,         0.0
"Transformer.T6"        ,   2,        -7.2,        -3.5
"Transformer.T7"        ,   1,        24.6,        11.9,         0.0,         0.0,         0.0,         0.0
"Transformer.T7"        ,   2,       -24.3,       -11.8
"Transformer.T8"        ,   1,        24.5,        12.1,         0.0,         0.0,         0.0,         0.0
"Transformer.T8"        ,   2,       -24.3,       -11.8
"Transformer.T9"        ,   1,        65.3,        32.6,         0.0,         0.0,         0.0,         0.0
"Transformer.T9"        ,   2,       -64.8,       -31.4
"Transformer.T10"       ,   1,        39.2,        19.4,         0.0,         0.0,         0.0,         0.0
"Transformer.T10"       ,   2,       -38.9,       -18.8
"Transformer.T11"       ,   1,        73.2,        35.2,         0.0,         0.0,         0.0,         0.0
"Transformer.T11"       ,   2,       -72.0,       -34.9
"Transformer.T12"       ,   1,        32.7,        16.3,         0.0,         0.0,         0.0,         0.0
"Transformer.T12"       ,   2,       -32.4,       -15.7
"Transformer.T13"       ,   1,       130.6,        65.4,         0.0,         0.0,         0.0,         0.0
"Transformer.T13"       ,   2,      -129.6,       -62.8
"Transformer.T14"       ,   1,        52.2,        26.1,         0.0,         0.0,         0.0,         0.0
"Transformer.T14"       ,   2,       -51.8,       -25.1
"Transformer.T15"       ,   1,        25.8,        12.3,         0.0,         0.0,         0.0,         0.0
"Transformer.T15"       ,   2,       -25.2,       -12.2
"Transformer.T16"       ,   1,        11.7,         5.6,         0.0,         0.0,         0.0,         0.0
"Transformer.T16"       ,   2,       -11.5,        -5.6
"Transformer.T17"       ,   1,        20.4,        10.1,         0.0,         0.0,         0.0,         0.0
"Transformer.T17"       ,   2,       -20.3,        -9.8
"Transformer.T18"       ,   1,         7.3,         3.5,         0.0,         0.0,         0.0,         0.0
"Transformer.T18"       ,   2,        -7.2,        -3.5
"Transformer.T19"       ,   1,        57.2,        28.4,         0.0,         0.0,         0.0,         0.0
"Transformer.T19"       ,   2,       -56.7,       -27.5
"Transformer.T20"       ,   1,        10.3,         4.9,         0.0,         0.0,         0.0,         0.0
"Transformer.T20"       ,   2,       -10.1,        -4.9
"Transformer.T21"       ,   1,        65.3,        32.6,         0.0,         0.0,         0.0,         0.0
"Transformer.T21"       ,   2,       -64.8,       -31.4
"Transformer.T22"       ,   1,        36.7,        17.6,         0.0,         0.0,         0.0,         0.0
"Transformer.T22"       ,   2,       -36.0,       -17.4
"Transformer.T23"       ,   1,        45.7,        22.8,         0.0,         0.0,         0.0,         0.0
"Transformer.T23"       ,   2,       -45.4,       -22.0
"Line.F01"              ,   1,      1862.8,       921.9,         0.0,         0.0,         0.0,         0.0
"Line.F01"              ,   2,     -1859.7,      -920.0
"Line.F02"              ,   1,      1810.6,       895.7,         0.0,         0.0,         0.0,         0.0
"Line.F02"              ,   2,     -1809.4,      -894.9
"Line.F03"              ,   1,      1743.8,       862.3,         0.0,         0.0,         0.0,         0.0
"Line.F03"              ,   2,     -1742.7,      -861.7
"Line.F04"              ,   1,      1677.1,       829.1,         0.0,         0.0,         0.0,         0.0
"Line.F04"              ,   2,     -1676.0,      -828.3
"Line.F05"              ,   1,      1610.4,       795.7,         0.0,         0.0,         0.0,         0.0
"Line.F05"              ,   2,     -1610.3,      -795.7
"Line.F06"              ,   1,      1610.3,       795.7,         0.0,         0.0,         0.0,         0.0
"Line.F06"              ,   2,     -1609.9,      -795.4
"Line.F07"              ,   1,      1560.9,       771.2,         0.0,         0.0,         0.0,         0.0
"Line.F07"              ,   2,     -1560.4,      -770.9
"Line.F08"              ,   1,      1494.8,       738.3,         0.0,         0.0,         0.0,         0.0
"Line.F08"              ,   2,     -1494.8,      -738.3
"Line.F09"              ,   1,      1494.8,       738.3,         0.0,         0.0,         0.0,         0.0
"Line.F09"              ,   2,     -1494.5,      -738.1
"Line.F10"              ,   1,      1480.1,       731.1,         0.0,         0.0,         0.0,         0.0
"Line.F10"              ,   2,     -1479.8,      -730.9
"Line.F11"              ,   1,      1430.8,       706.7,         0.0,         0.0,         0.0,         0.0
"Line.F11"              ,   2,     -1430.5,      -706.6
"Line.F12"              ,   1,      1373.3,       678.2,         0.0,         0.0,         0.0,         0.0
"Line.F12"              ,   2,     -1373.2,      -678.1
"Line.F13"              ,   1,      1334.0,       658.8,         0.0,         0.0,         0.0,         0.0
"Line.F13"              ,   2,     -1333.5,      -658.5
"Line.F14"              ,   1,        39.2,        19.3,         0.0,         0.0,         0.0,         0.0
"Line.F14"              ,   2,       -39.2,       -19.4
"Line.F15"              ,   1,      1276.2,       630.1,         0.0,         0.0,         0.0,         0.0
"Line.F15"              ,   2,     -1276.2,      -630.1
"Line.F16"              ,   1,      1276.2,       630.1,         0.0,         0.0,         0.0,         0.0
"Line.F16"              ,   2,     -1275.9,      -629.9
"Line.F18"              ,   1,      1226.7,       605.5,         0.0,         0.0,         0.0,         0.0
"Line.F18"              ,   2,     -1226.4,      -605.3
"Line.F19"              ,   1,      1177.3,       581.1,         0.0,         0.0,         0.0,         0.0
"Line.F19"              ,   2,     -1177.0,      -580.9
"Line.F20"              ,   1,      1177.0,       580.9,         0.0,         0.0,         0.0,         0.0
"Line.F20"              ,   2,     -1176.8,      -580.7
"Line.F21"              ,   1,      1123.1,       554.4,         0.0,         0.0,         0.0,         0.0
"Line.F21"              ,   2,     -1123.0,      -554.3
"Line.F22"              ,   1,        53.7,        26.4,         0.0,         0.0,         0.0,         0.0
"Line.F22"              ,   2,       -53.7,       -26.4
"Line.F23"              ,   1,        39.2,        19.3,         0.0,         0.0,         0.0,         0.0
"Line.F23"              ,   2,       -39.2,       -19.4
"Line.F24"              ,   1,         0.0,        -0.0,         0.0,         0.0,         0.0,         0.0
"Line.F24"              ,   2,         0.0,         0.0
"Line.F25"              ,   1,      1123.0,       554.3,         0.0,         0.0,         0.0,         0.0
"Line.F25"              ,   2,     -1122.9,      -554.3
"Line.F26"              ,   1,         5.4,         2.6,         0.0,         0.0,         0.0,         0.0
"Line.F26"              ,   2,        -5.4,        -2.6
"Line.F27"              ,   1,        -0.0,        -0.0,         0.0,         0.0,         0.0,         0.0
"Line.F27"              ,   2,         0.0,         0.0
"Line.F28"              ,   1,       682.7,       337.2,         0.0,         0.0,         0.0,         0.0
"Line.F28"              ,   2,      -682.7,      -337.1
"Line.F29"              ,   1,       434.8,       214.5,         0.0,         0.0,         0.0,         0.0
"Line.F29"              ,   2,      -434.8,      -214.5
"Line.F30"              ,   1,       434.8,       214.5,         0.0,         0.0,         0.0,         0.0
"Line.F30"              ,   2,      -434.8,      -214.5
"Line.F31"              ,   1,       416.7,       205.7,         0.0,         0.0,         0.0,         0.0
"Line.F31"              ,   2,      -416.7,      -205.7
"Line.F32"              ,   1,       407.7,       201.3,         0.0,         0.0,         0.0,         0.0
"Line.F32"              ,   2,      -407.7,      -201.3
"Line.F33"              ,   1,       379.3,       187.5,         0.0,         0.0,         0.0,         0.0
"Line.F33"              ,   2,      -379.3,      -187.5
"Line.F34"              ,   1,       313.7,       154.9,         0.0,         0.0,         0.0,         0.0
"Line.F34"              ,   2,      -313.7,      -154.9
"Line.F35"              ,   1,       248.1,       122.3,         0.0,         0.0,         0.0,         0.0
"Line.F35"              ,   2,      -248.1,      -122.3
"Line.F36"              ,   1,       233.6,       115.3,         0.0,         0.0,         0.0,         0.0
"Line.F36"              ,   2,      -233.6,      -115.3
"Line.F37"              ,   1,       233.6,       115.3,         0.0,         0.0,         0.0,         0.0
"Line.F37"              ,   2,      -233.6,      -115.4
"Line.F38"              ,   1,       597.0,       294.8,         0.0,         0.0,         0.0,         0.0
"Line.F38"              ,   2,      -596.9,      -294.8
"Line.F39"              ,   1,       596.9,       294.8,         0.0,         0.0,         0.0,         0.0
"Line.F39"              ,   2,      -596.8,      -294.7
"Line.F40"              ,   1,       585.3,       289.1,         0.0,         0.0,         0.0,         0.0
"Line.F40"              ,   2,      -585.2,      -289.1
"Line.F41"              ,   1,       487.1,       240.6,         0.0,         0.0,         0.0,         0.0
"Line.F41"              ,   2,      -487.0,      -240.6
"Line.F42"              ,   1,       421.5,       208.0,         0.0,         0.0,         0.0,         0.0
"Line.F42"              ,   2,      -421.4,      -208.0
"Line.F43"              ,   1,       399.8,       197.5,         0.0,         0.0,         0.0,         0.0
"Line.F43"              ,   2,      -399.7,      -197.5
"Line.F44"              ,   1,       301.7,       149.0,         0.0,         0.0,         0.0,         0.0
"Line.F44"              ,   2,      -301.7,      -149.0
"Line.F45"              ,   1,       147.2,        72.7,         0.0,         0.0,         0.0,         0.0
"Line.F45"              ,   2,      -147.2,       -72.7
"Line.F46"              ,   1,        65.6,        32.5,         0.0,         0.0,         0.0,         0.0
"Line.F46"              ,   2,       -65.6,       -32.6
"Line.F47"              ,   1,        65.6,        32.6,         0.0,         0.0,         0.0,         0.0
"Line.F47"              ,   2,       -65.6,       -32.6
"Line.F48"              ,   1,       617.1,       304.5,         0.0,         0.0,         0.0,         0.0
"Line.F48"              ,   2,      -617.0,      -304.5
"Line.F49"              ,   1,       122.9,        60.9,         0.0,         0.0,         0.0,         0.0
"Line.F49"              ,   2,      -122.9,       -60.9
"Line.F50"              ,   1,        65.6,        32.5,         0.0,         0.0,         0.0,         0.0
"Line.F50"              ,   2,       -65.6,       -32.5
"Line.F51"              ,   1,         0.0,        -0.1,         0.0,         0.0,         0.0,         0.0
"Line.F51"              ,   2,        -0.0,        -0.0
"Line.F52"              ,   1,       494.1,       243.6,         0.0,         0.0,         0.0,         0.0
"Line.F52"              ,   2,      -494.0,      -243.6
"Line.F53"              ,   1,       479.6,       236.6,         0.0,         0.0,         0.0,         0.0
"Line.F53"              ,   2,      -479.6,      -236.6
"Line.F54"              ,   1,        50.5,        24.5,         0.0,         0.0,         0.0,         0.0
"Line.F54"              ,   2,       -50.5,       -24.5
"Line.F55"              ,   1,        25.3,        12.2,         0.0,         0.0,         0.0,         0.0
"Line.F55"              ,   2,       -25.3,       -12.2
"Line.F56"              ,   1,         0.0,        -0.1,         0.0,         0.0,         0.0,         0.0
"Line.F56"              ,   2,        -0.0,        -0.0
"Line.F57"              ,   1,       429.0,       212.1,         0.0,         0.0,         0.0,         0.0
"Line.F57"              ,   2,      -429.0,      -212.1
"Line.F58"              ,   1,       363.4,       179.4,         0.0,         0.0,         0.0,         0.0
"Line.F58"              ,   2,      -363.4,      -179.4
"Transformer.T24"       ,   1,        49.0,        24.2,         0.0,         0.0,         0.0,         0.0
"Transformer.T24"       ,   2,       -48.6,       -23.5
"Transformer.T25"       ,   1,        65.6,        32.6,         0.0,         0.0,         0.0,         0.0
"Transformer.T25"       ,   2,       -64.8,       -31.4
"Transformer.T26"       ,   1,        65.6,        32.6,         0.0,         0.0,         0.0,         0.0
"Transformer.T26"       ,   2,       -64.8,       -31.4
"Transformer.T27"       ,   1,        49.0,        24.2,         0.0,         0.0,         0.0,         0.0
"Transformer.T27"       ,   2,       -48.6,       -23.5
"Transformer.T28"       ,   1,        65.6,        32.6,         0.0,         0.0,         0.0,         0.0
"Transformer.T28"       ,   2,       -64.8,       -31.4
"Transformer.T29"       ,   1,        14.4,         7.0,         0.0,         0.0,         0.0,         0.0
"Transformer.T29"       ,   2,       -14.4,        -7.0
"Transformer.T30"       ,   1,        39.2,        19.4,         0.0,         0.0,         0.0,         0.0
"Transformer.T30"       ,   2,       -38.9,       -18.8
"Transformer.T31"       ,   1,        57.3,        28.4,         0.0,         0.0,         0.0,         0.0
"Transformer.T31"       ,   2,       -56.7,       -27.5
"Transformer.T32"       ,   1,        57.3,        28.4,         0.0,         0.0,         0.0,         0.0
"Transformer.T32"       ,   2,       -56.7,       -27.5
"Transformer.T33"       ,   1,        49.2,        24.5,         0.0,         0.0,         0.0,         0.0
"Transformer.T33"       ,   2,       -48.6,       -23.5
"Transformer.T34"       ,   1,        49.0,        24.2,         0.0,         0.0,         0.0,         0.0
"Transformer.T34"       ,   2,       -48.6,       -23.5
"Transformer.T35"       ,   1,        14.4,         7.0,         0.0,         0.0,         0.0,         0.0
"Transformer.T35"       ,   2,       -14.4,        -7.0
"Transformer.T36"       ,   1,        39.2,        19.4,         0.0,         0.0,         0.0,         0.0
"Transformer.T36"       ,   2,       -38.9,       -18.8
"Transformer.T37"       ,   1,        65.6,        32.6,         0.0,         0.0,         0.0,         0.0
"Transformer.T37"       ,   2,       -64.8,       -31.4
"Transformer.T38"       ,   1,         5.4,         2.6,         0.0,         0.0,         0.0,         0.0
"Transformer.T38"       ,   2,        -5.4,        -2.6
"Transformer.T39"       ,   1,        65.6,        32.6,         0.0,         0.0,         0.0,         0.0
"Transformer.T39"       ,   2,       -64.8,       -31.4
"Transformer.T40"       ,   1,        65.6,        32.6,         0.0,         0.0,         0.0,         0.0
"Transformer.T40"       ,   2,       -64.8,       -31.4
"Transformer.T41"       ,   1,        28.4,        13.8,         0.0,         0.0,         0.0,         0.0
"Transformer.T41"       ,   2,       -28.4,       -13.7
"Transformer.T42"       ,   1,         9.0,         4.4,         0.0,         0.0,         0.0,         0.0
"Transformer.T42"       ,   2,        -9.0,        -4.4
"Transformer.T43"       ,   1,        18.0,         8.8,         0.0,         0.0,         0.0,         0.0
"Transformer.T43"       ,   2,       -18.0,        -8.7
"Transformer.T44"       ,   1,        57.3,        28.4,         0.0,         0.0,         0.0,         0.0
"Transformer.T44"       ,   2,       -56.7,       -27.5
"Transformer.T45"       ,   1,        65.6,        32.6,         0.0,         0.0,         0.0,         0.0
"Transformer.T45"       ,   2,       -64.8,       -31.4
"Transformer.T46"       ,   1,        14.4,         7.0,         0.0,         0.0,         0.0,         0.0
"Transformer.T46"       ,   2,       -14.4,        -7.0
"Transformer.T47"       ,   1,        14.4,         7.0,         0.0,         0.0,         0.0,         0.0
"Transformer.T47"       ,   2,       -14.4,        -7.0
"Transformer.T48"       ,   1,        25.3,        12.3,         0.0,         0.0,         0.0,         0.0
"Transformer.T48"       ,   2,       -25.2,       -12.2
"Transformer.T49"       ,   1,        25.3,        12.3,         0.0,         0.0,         0.0,         0.0
"Transformer.T49"       ,   2,       -25.2,       -12.2
"Transformer.T50"       ,   1,        65.6,        32.6,         0.0,         0.0,         0.0,         0.0
"Transformer.T50"       ,   2,       -64.8,       -31.4
"Transformer.T51"       ,   1,        11.6,         5.6,         0.0,         0.0,         0.0,         0.0
"Transformer.T51"       ,   2,       -11.5,        -5.6
"Transformer.T52"       ,   1,        98.1,        48.5,         0.0,         0.0,         0.0,         0.0
"Transformer.T52"       ,   2,       -97.2,       -47.1
"Transformer.T53"       ,   1,        21.6,        10.5,         0.0,         0.0,         0.0,         0.0
"Transformer.T53"       ,   2,       -21.6,       -10.5
"Transformer.T54"       ,   1,        65.6,        32.6,         0.0,         0.0,         0.0,         0.0
"Transformer.T54"       ,   2,       -64.8,       -31.4
"Transformer.T55"       ,   1,        98.1,        48.5,         0.0,         0.0,         0.0,         0.0
"Transformer.T55"       ,   2,       -97.2,       -47.1
"Transformer.T56"       ,   1,       154.5,        76.3,         0.0,         0.0,         0.0,         0.0
"Transformer.T56"       ,   2,      -153.1,       -74.2
"Transformer.T57"       ,   1,        81.6,        40.2,         0.0,         0.0,         0.0,         0.0
"Transformer.T57"       ,   2,       -81.0,       -39.2
"Transformer.T58"       ,   1,        65.6,        32.6,         0.0,         0.0,         0.0,         0.0
"Transformer.T58"       ,   2,       -64.8,       -31.4
"Transformer.T59"       ,   1,         0.0,         0.0,         0.0,         0.0,         0.0,         0.0
"Transformer.T59"       ,   2,        -0.0,        -0.0
"Transformer.T61"       ,   1,        65.6,        32.6,         0.0,         0.0,         0.0,         0.0
"Transformer.T61"       ,   2,       -64.8,       -31.4
"Transformer.T62"       ,   1,        49.0,        24.2,         0.0,         0.0,         0.0,         0.0
"Transformer.T62"       ,   2,       -48.6,       -23.5
"Line.KF01"             ,   1,       939.0,       709.8,         0.0,         0.0,         0.0,         0.0
"Line.KF01"             ,   2,      -938.2,      -709.4
"Line.KF02"             ,   1,         0.0,        -0.0,         0.0,         0.0,         0.0,         0.0
"Line.KF02"             ,   2,        -0.0,        -0.0
"Line.KF03"             ,   1,       938.2,       709.4,         0.0,         0.0,         0.0,         0.0
"Line.KF03"             ,   2,      -938.1,      -709.3
"Line.KF04"             ,   1,       889.1,       685.1,         0.0,         0.0,         0.0,         0.0
"Line.KF04"             ,   2,      -888.4,      -684.8
"Line.KF05"             ,   1,       855.8,       668.8,         0.0,         0.0,         0.0,         0.0
"Line.KF05"             ,   2,      -855.5,      -668.6
"Line.KF06"             ,   1,       848.3,       665.1,         0.0,         0.0,         0.0,         0.0
"Line.KF06"             ,   2,      -848.0,      -664.9
"Line.KF07"             ,   1,       848.0,       664.9,         0.0,         0.0,         0.0,         0.0
"Line.KF07"             ,   2,      -847.7,      -664.8
"Line.KF08"             ,   1,        19.3,         9.3,         0.0,         0.0,         0.0,         0.0
"Line.KF08"             ,   2,       -19.3,        -9.3
"Line.KF09"             ,   1,         2.9,         1.4,         0.0,         0.0,         0.0,         0.0
"Line.KF09"             ,   2,        -2.9,        -1.4
"Line.KF10"             ,   1,       -11.6,        -5.6,         0.0,         0.0,         0.0,         0.0
"Line.KF10"             ,   2,        11.6,         5.6
"Line.KF11"             ,   1,       265.9,       313.1,         0.0,         0.0,         0.0,         0.0
"Line.KF11"             ,   2,      -265.9,      -313.1
"Line.KF12"             ,   1,       265.9,       313.1,         0.0,         0.0,         0.0,         0.0
"Line.KF12"             ,   2,      -265.8,      -313.2
"Line.KF13"             ,   1,       551.0,       336.7,         0.0,         0.0,         0.0,         0.0
"Line.KF13"             ,   2,      -550.8,      -336.6
"Line.KF14"             ,   1,       440.3,       233.9,         0.0,         0.0,         0.0,         0.0
"Line.KF14"             ,   2,      -440.3,      -233.9
"Line.KF15"             ,   1,       394.5,       211.2,         0.0,         0.0,         0.0,         0.0
"Line.KF15"             ,   2,      -394.4,      -211.2
"Line.KF16"             ,   1,         0.0,        -0.0,         0.0,         0.0,         0.0,         0.0
"Line.KF16"             ,   2,         0.0,         0.0
"Line.KF17"             ,   1,        65.6,        32.6,         0.0,         0.0,         0.0,         0.0
"Line.KF17"             ,   2,       -65.6,       -32.6
"Line.KF18"             ,   1,       328.8,       178.6,         0.0,         0.0,         0.0,         0.0
"Line.KF18"             ,   2,      -328.8,      -178.6
"Line.KF19"             ,   1,       230.7,       130.2,         0.0,         0.0,         0.0,         0.0
"Line.KF19"             ,   2,      -230.7,      -130.2
"Line.KF20"             ,   1,       132.7,        81.8,         0.0,         0.0,         0.0,         0.0
"Line.KF20"             ,   2,      -132.7,       -81.8
"Line.KF21"             ,   1,        80.2,        55.7,         0.0,         0.0,         0.0,         0.0
"Line.KF21"             ,   2,       -80.2,       -55.8
"Line.KF22"             ,   1,       921.2,       455.0,         0.0,         0.0,         0.0,         0.0
"Line.KF22"             ,   2,      -920.6,      -454.7
"Line.KF23"             ,   1,       863.3,       426.3,         0.0,         0.0,         0.0,         0.0
"Line.KF23"             ,   2,      -862.8,      -426.0
"Line.KF24"             ,   1,       298.7,       147.8,         0.0,         0.0,         0.0,         0.0
"Line.KF24"             ,   2,      -298.7,      -147.8
"Line.KF25"             ,   1,       564.1,       278.2,         0.0,         0.0,         0.0,         0.0
"Line.KF25"             ,   2,      -564.0,      -278.2
"Line.KF26"             ,   1,       535.3,       264.0,         0.0,         0.0,         0.0,         0.0
"Line.KF26"             ,   2,      -535.2,      -264.0
"Line.KF27"             ,   1,       437.2,       215.5,         0.0,         0.0,         0.0,         0.0
"Line.KF27"             ,   2,      -437.1,      -215.5
"Line.KF28"             ,   1,       384.6,       189.4,         0.0,         0.0,         0.0,         0.0
"Line.KF28"             ,   2,      -384.6,      -189.4
"Line.KF29"             ,   1,        -0.0,        -0.0,         0.0,         0.0,         0.0,         0.0
"Line.KF29"             ,   2,         0.0,         0.0
"Line.KF30"             ,   1,       233.2,       115.2,         0.0,         0.0,         0.0,         0.0
"Line.KF30"             ,   2,      -233.1,      -115.3
"Line.KF31"             ,   1,       204.5,       101.1,         0.0,         0.0,         0.0,         0.0
"Line.KF31"             ,   2,      -204.5,      -101.1
"Line.KF32"             ,   1,       138.9,        68.5,         0.0,         0.0,         0.0,         0.0
"Line.KF32"             ,   2,      -138.9,       -68.5
"Line.KF33"             ,   1,        98.1,        48.4,         0.0,         0.0,         0.0,         0.0
"Line.KF33"             ,   2,       -98.1,       -48.4
"Line.KF34"             ,   1,        -0.0,        -0.0,         0.0,         0.0,         0.0,         0.0
"Line.KF34"             ,   2,         0.0,         0.0
"Line.KF35"             ,   1,       384.6,       189.4,         0.0,         0.0,         0.0,         0.0
"Line.KF35"             ,   2,      -384.5,      -189.4
"Line.KF36"             ,   1,       351.7,       173.1,         0.0,         0.0,         0.0,         0.0
"Line.KF36"             ,   2,      -351.7,      -173.1
"Line.KF37"             ,   1,       300.3,       147.9,         0.0,         0.0,         0.0,         0.0
"Line.KF37"             ,   2,      -300.3,      -148.0
"Line.KF38"             ,   1,       300.3,       148.0,         0.0,         0.0,         0.0,         0.0
"Line.KF38"             ,   2,      -300.3,      -148.0
"Line.KF39"             ,   1,         0.0,        -0.0,         0.0,         0.0,         0.0,         0.0
"Line.KF39"             ,   2,        -0.0,        -0.0
"Line.KF40"             ,   1,       171.8,        84.7,         0.0,         0.0,         0.0,         0.0
"Line.KF40"             ,   2,      -171.8,       -84.7
"Line.KF41"             ,   1,       171.8,        84.7,         0.0,         0.0,         0.0,         0.0
"Line.KF41"             ,   2,      -171.8,       -84.8
"Line.KF42"             ,   1,        -0.0,        -0.0,         0.0,         0.0,         0.0,         0.0
"Line.KF42"             ,   2,        -0.0,        -0.0
"Line.KF43"             ,   1,       131.2,        65.0,         0.0,         0.0,         0.0,         0.0
"Line.KF43"             ,   2,      -131.2,       -65.1
"Line.KF44"             ,   1,       131.2,        65.1,         0.0,         0.0,         0.0,         0.0
"Line.KF44"             ,   2,      -131.2,       -65.1
"Line.KF45"             ,   1,        65.6,        32.5,         0.0,         0.0,         0.0,         0.0
"Line.KF45"             ,   2,       -65.6,       -32.5
"Line.KF46"             ,   1,         0.0,        -0.1,         0.0,         0.0,         0.0,         0.0
"Line.KF46"             ,   2,        -0.0,        -0.0
"Line.KF47"             ,   1,      -841.0,      -399.2,         0.0,         0.0,         0.0,         0.0
"Line.KF47"             ,   2,       841.2,       399.3
"Line.KF48"             ,   1,      -906.7,      -431.9,         0.0,         0.0,         0.0,         0.0
"Line.KF48"             ,   2,       906.9,       432.0
"Line.KF49"             ,   1,        -0.0,        -0.0,         0.0,         0.0,         0.0,         0.0
"Line.KF49"             ,   2,         0.0,        -0.0
"Line.KF50"             ,   1,       -50.6,       -73.3,         0.0,         0.0,         0.0,         0.0
"Line.KF50"             ,   2,        50.6,        73.3
"Line.KF51"             ,   1,       -61.4,       -78.6,         0.0,         0.0,         0.0,         0.0
"Line.KF51"             ,   2,        61.4,        78.5
"Line.KF52"             ,   1,      -110.4,      -102.8,         0.0,         0.0,         0.0,         0.0
"Line.KF52"             ,   2,       110.4,       102.7
"Line.KF53"             ,   1,        40.6,        19.7,         0.0,         0.0,         0.0,         0.0
"Line.KF53"             ,   2,       -40.6,       -19.7
"Transformer.T63"       ,   1,        49.0,        24.2,         0.0,         0.0,         0.0,         0.0
"Transformer.T63"       ,   2,       -48.6,       -23.5
"Transformer.T65"       ,   1,         7.2,         3.5,         0.0,         0.0,         0.0,         0.0
"Transformer.T65"       ,   2,        -7.2,        -3.5
"Transformer.T66"       ,   1,        45.8,        22.7,         0.0,         0.0,         0.0,         0.0
"Transformer.T66"       ,   2,       -45.4,       -22.0
"Transformer.T67"       ,   1,        49.0,        24.2,         0.0,         0.0,         0.0,         0.0
"Transformer.T67"       ,   2,       -48.6,       -23.5
"Transformer.T68"       ,   1,        32.6,        16.0,         0.0,         0.0,         0.0,         0.0
"Transformer.T68"       ,   2,       -32.4,       -15.7
"Transformer.T69"       ,   1,        65.6,        32.6,         0.0,         0.0,         0.0,         0.0
"Transformer.T69"       ,   2,       -64.8,       -31.4
"Transformer.T70"       ,   1,        65.6,        32.6,         0.0,         0.0,         0.0,         0.0
"Transformer.T70"       ,   2,       -64.8,       -31.4
"Transformer.T71"       ,   1,        98.1,        48.4,         0.0,         0.0,         0.0,         0.0
"Transformer.T71"       ,   2,       -97.2,       -47.1
"Transformer.T72"       ,   1,        98.1,        48.4,         0.0,         0.0,         0.0,         0.0
"Transformer.T72"       ,   2,       -97.2,       -47.1
"Transformer.T73"       ,   1,        52.5,        26.1,         0.0,         0.0,         0.0,         0.0
"Transformer.T73"       ,   2,       -51.8,       -25.1
"Transformer.T74"       ,   1,        57.3,        28.4,         0.0,         0.0,         0.0,         0.0
"Transformer.T74"       ,   2,       -56.7,       -27.5
"Transformer.T75"       ,   1,        65.6,        32.6,         0.0,         0.0,         0.0,         0.0
"Transformer.T75"       ,   2,       -64.8,       -31.4
"Transformer.T76"       ,   1,        28.6,        14.2,         0.0,         0.0,         0.0,         0.0
"Transformer.T76"       ,   2,       -28.4,       -13.7
"Transformer.T77"       ,   1,        98.1,        48.5,         0.0,         0.0,         0.0,         0.0
"Transformer.T77"       ,   2,       -97.2,       -47.1
"Transformer.T78"       ,   1,        65.6,        32.6,         0.0,         0.0,         0.0,         0.0
"Transformer.T78"       ,   2,       -64.8,       -31.4
"Transformer.T79"       ,   1,        40.8,        20.1,         0.0,         0.0,         0.0,         0.0
"Transformer.T79"       ,   2,       -40.5,       -19.6
"Transformer.T80"       ,   1,        28.6,        14.2,         0.0,         0.0,         0.0,         0.0
"Transformer.T80"       ,   2,       -28.4,       -13.7
"Transformer.T81"       ,   1,        98.1,        48.5,         0.0,         0.0,         0.0,         0.0
"Transformer.T81"       ,   2,       -97.2,       -47.1
"Transformer.T82"       ,   1,        52.5,        26.1,         0.0,         0.0,         0.0,         0.0
"Transformer.T82"       ,   2,       -51.8,       -25.1
"Transformer.T83"       ,   1,        32.8,        16.3,         0.0,         0.0,         0.0,         0.0
"Transformer.T83"       ,   2,       -32.4,       -15.7
"Transformer.T84"       ,   1,        51.3,        25.2,         0.0,         0.0,         0.0,         0.0
"Transformer.T84"       ,   2,       -51.0,       -24.7
"Transformer.T85"       ,   1,       128.5,        63.3,         0.0,         0.0,         0.0,         0.0
"Transformer.T85"       ,   2,      -127.6,       -61.8
"Transformer.T86"       ,   1,        14.4,         7.0,         0.0,         0.0,         0.0,         0.0
"Transformer.T86"       ,   2,       -14.4,        -7.0
"Transformer.T87"       ,   1,        65.6,        32.6,         0.0,         0.0,         0.0,         0.0
"Transformer.T87"       ,   2,       -64.8,       -31.4
"Transformer.T88"       ,   1,        65.6,        32.6,         0.0,         0.0,         0.0,         0.0
"Transformer.T88"       ,   2,       -64.8,       -31.4
"Transformer.T89"       ,   1,        40.6,        19.7,         0.0,         0.0,         0.0,         0.0
"Transformer.T89"       ,   2,       -40.5,       -19.6
...